5276890
  -OEChem-09212409593D

 51 54  0     1  0  0  0  0  0999 V2000
    2.8816    0.7588   -0.3184 O   0  0  0  0  0  0  0  0  0  0  0  0
   -0.5478   -0.5796    0.0493 O   0  0  0  0  0  0  0  0  0  0  0  0
    3.2692   -4.0553    0.0436 O   0  0  0  0  0  0  0  0  0  0  0  0
    7.1354   -1.3153   -0.3847 O   0  0  0  0  0  0  0  0  0  0  0  0
    0.3833    4.2736    2.5457 O   0  0  0  0  0  0  0  0  0  0  0  0
   -0.9580    4.6117   -2.0396 O   0  0  0  0  0  0  0  0  0  0  0  0
   -0.7394   -2.3126    1.5525 O   0  0  0  0  0  0  0  0  0  0  0  0
   -0.8605    5.6843    0.5115 O   0  0  0  0  0  0  0  0  0  0  0  0
   -5.1906    0.8075   -0.7590 O   0  0  0  0  0  0  0  0  0  0  0  0
   -5.4156   -3.8944    0.1211 O   0  0  0  0  0  0  0  0  0  0  0  0
   -6.6499   -1.5446   -0.6671 O   0  0  0  0  0  0  0  0  0  0  0  0
    0.8466   -0.4808    0.3196 C   0  0  2  0  0  0  0  0  0  0  0  0
    1.4686    0.6267   -0.5426 C   0  0  1  0  0  0  0  0  0  0  0  0
    1.5074   -1.8145   -0.0184 C   0  0  0  0  0  0  0  0  0  0  0  0
    2.9959   -1.6703   -0.1153 C   0  0  0  0  0  0  0  0  0  0  0  0
    0.8454    1.9812   -0.2600 C   0  0  0  0  0  0  0  0  0  0  0  0
    3.5890   -0.4125   -0.2697 C   0  0  0  0  0  0  0  0  0  0  0  0
    3.8111   -2.8095   -0.0796 C   0  0  0  0  0  0  0  0  0  0  0  0
    4.9793   -0.2940   -0.3479 C   0  0  0  0  0  0  0  0  0  0  0  0
    0.2226    2.6856   -1.2876 C   0  0  0  0  0  0  0  0  0  0  0  0
    0.8983    2.5150    1.0256 C   0  0  0  0  0  0  0  0  0  0  0  0
    5.1981   -2.6904   -0.1700 C   0  0  0  0  0  0  0  0  0  0  0  0
    5.7821   -1.4326   -0.3002 C   0  0  0  0  0  0  0  0  0  0  0  0
   -1.2210   -1.5412    0.7374 C   0  0  0  0  0  0  0  0  0  0  0  0
    0.3255    3.7600    1.2851 C   0  0  0  0  0  0  0  0  0  0  0  0
   -0.3503    3.9307   -1.0283 C   0  0  0  0  0  0  0  0  0  0  0  0
   -0.2990    4.4680    0.2580 C   0  0  0  0  0  0  0  0  0  0  0  0
   -2.6585   -1.5419    0.3660 C   0  0  0  0  0  0  0  0  0  0  0  0
   -3.3610   -2.7283    0.4206 C   0  0  0  0  0  0  0  0  0  0  0  0
   -3.2478   -0.3561   -0.0226 C   0  0  0  0  0  0  0  0  0  0  0  0
   -4.5984   -0.3567   -0.3718 C   0  0  0  0  0  0  0  0  0  0  0  0
   -4.7115   -2.7292    0.0714 C   0  0  0  0  0  0  0  0  0  0  0  0
   -5.3302   -1.5433   -0.3248 C   0  0  0  0  0  0  0  0  0  0  0  0
    0.9999   -0.2650    1.3859 H   0  0  0  0  0  0  0  0  0  0  0  0
    1.3185    0.3897   -1.6056 H   0  0  0  0  0  0  0  0  0  0  0  0
    1.1220   -2.2048   -0.9693 H   0  0  0  0  0  0  0  0  0  0  0  0
    1.3010   -2.5657    0.7478 H   0  0  0  0  0  0  0  0  0  0  0  0
    5.4310    0.6898   -0.4523 H   0  0  0  0  0  0  0  0  0  0  0  0
    0.1809    2.2677   -2.2903 H   0  0  0  0  0  0  0  0  0  0  0  0
    1.3937    1.9731    1.8271 H   0  0  0  0  0  0  0  0  0  0  0  0
    5.8308   -3.5741   -0.1386 H   0  0  0  0  0  0  0  0  0  0  0  0
    3.9833   -4.7154    0.0499 H   0  0  0  0  0  0  0  0  0  0  0  0
    7.3657   -0.3743   -0.4715 H   0  0  0  0  0  0  0  0  0  0  0  0
   -2.8767   -3.6518    0.7260 H   0  0  0  0  0  0  0  0  0  0  0  0
   -2.6914    0.5768   -0.0501 H   0  0  0  0  0  0  0  0  0  0  0  0
    0.8508    3.6460    3.1232 H   0  0  0  0  0  0  0  0  0  0  0  0
   -0.8974    4.0874   -2.8566 H   0  0  0  0  0  0  0  0  0  0  0  0
   -1.2451    6.0232   -0.3156 H   0  0  0  0  0  0  0  0  0  0  0  0
   -4.5322    1.5230   -0.7329 H   0  0  0  0  0  0  0  0  0  0  0  0
   -4.8256   -4.6091    0.4163 H   0  0  0  0  0  0  0  0  0  0  0  0
   -6.9902   -2.4515   -0.5749 H   0  0  0  0  0  0  0  0  0  0  0  0
  1 13  1  0  0  0  0
  1 17  1  0  0  0  0
  2 12  1  0  0  0  0
  2 24  1  0  0  0  0
  3 18  1  0  0  0  0
  3 42  1  0  0  0  0
  4 23  1  0  0  0  0
  4 43  1  0  0  0  0
  5 25  1  0  0  0  0
  5 46  1  0  0  0  0
  6 26  1  0  0  0  0
  6 47  1  0  0  0  0
  7 24  2  0  0  0  0
  8 27  1  0  0  0  0
  8 48  1  0  0  0  0
  9 31  1  0  0  0  0
  9 49  1  0  0  0  0
 10 32  1  0  0  0  0
 10 50  1  0  0  0  0
 11 33  1  0  0  0  0
 11 51  1  0  0  0  0
 12 13  1  0  0  0  0
 12 14  1  0  0  0  0
 12 34  1  0  0  0  0
 13 16  1  0  0  0  0
 13 35  1  0  0  0  0
 14 15  1  0  0  0  0
 14 36  1  0  0  0  0
 14 37  1  0  0  0  0
 15 17  1  0  0  0  0
 15 18  2  0  0  0  0
 16 20  2  0  0  0  0
 16 21  1  0  0  0  0
 17 19  2  0  0  0  0
 18 22  1  0  0  0  0
 19 23  1  0  0  0  0
 19 38  1  0  0  0  0
 20 26  1  0  0  0  0
 20 39  1  0  0  0  0
 21 25  2  0  0  0  0
 21 40  1  0  0  0  0
 22 23  2  0  0  0  0
 22 41  1  0  0  0  0
 24 28  1  0  0  0  0
 25 27  1  0  0  0  0
 26 27  2  0  0  0  0
 28 29  2  0  0  0  0
 28 30  1  0  0  0  0
 29 32  1  0  0  0  0
 29 44  1  0  0  0  0
 30 31  2  0  0  0  0
 30 45  1  0  0  0  0
 31 33  1  0  0  0  0
 32 33  2  0  0  0  0
M  END
> <PUBCHEM_COMPOUND_CID>
5276890

> <PUBCHEM_CONFORMER_RMSD>
0.8

> <PUBCHEM_CONFORMER_DIVERSEORDER>
1
53
25
54
46
36
37
38
56
29
41
24
22
34
7
35
13
28
18
45
50
11
48
55
17
42
9
39
30
49
47
6
2
4
51
26
19
31
43
14
32
44
10
52
21
12
33
16
5
23
27
8
3
40
20
15

> <PUBCHEM_MMFF94_PARTIAL_CHARGES>
47
1 -0.36
10 -0.53
11 -0.53
12 0.28
13 0.42
14 0.14
15 -0.14
16 -0.14
17 0.08
18 0.08
19 -0.15
2 -0.43
20 -0.15
21 -0.15
22 -0.15
23 0.08
24 0.63
25 0.08
26 0.08
27 0.08
28 0.09
29 -0.15
3 -0.53
30 -0.15
31 0.08
32 0.08
33 0.08
38 0.15
39 0.15
4 -0.53
40 0.15
41 0.15
42 0.45
43 0.45
44 0.15
45 0.15
46 0.45
47 0.45
48 0.45
49 0.45
5 -0.53
50 0.45
51 0.45
6 -0.53
7 -0.57
8 -0.53
9 -0.53

> <PUBCHEM_EFFECTIVE_ROTOR_COUNT>
4.8

> <PUBCHEM_PHARMACOPHORE_FEATURES>
14
1 1 acceptor
1 10 donor
1 11 donor
1 3 donor
1 4 donor
1 5 donor
1 6 donor
1 7 acceptor
1 8 donor
1 9 donor
6 1 12 13 14 15 17 rings
6 15 17 18 19 22 23 rings
6 16 20 21 25 26 27 rings
6 28 29 30 31 32 33 rings

> <PUBCHEM_HEAVY_ATOM_COUNT>
33

> <PUBCHEM_ATOM_DEF_STEREO_COUNT>
2

> <PUBCHEM_ATOM_UDEF_STEREO_COUNT>
0

> <PUBCHEM_BOND_DEF_STEREO_COUNT>
0

> <PUBCHEM_BOND_UDEF_STEREO_COUNT>
0

> <PUBCHEM_ISOTOPIC_ATOM_COUNT>
0

> <PUBCHEM_COMPONENT_COUNT>
1

> <PUBCHEM_CACTVS_TAUTO_COUNT>
1000

> <PUBCHEM_CONFORMER_ID>
005084DA00000001

> <PUBCHEM_MMFF94_ENERGY>
98.6833

> <PUBCHEM_FEATURE_SELFOVERLAP>
71.101

> <PUBCHEM_SHAPE_FINGERPRINT>
10930396 42 18192968605019162530
11045515 52 18408889520600580691
11093857 51 17320991166824335829
11386260 185 18264190574420093247
11720765 8 18269272520799926625
12156800 1 17901918895194482720
12160290 23 17760968084703825616
12166972 35 18201440337194164675
12342043 65 17316787652488885915
12440605 4 17757278080499540698
12516196 113 18412825798219972514
12788726 201 18262234400857066194
13590594 115 18410302402122954617
13631057 29 18338519643342782750
138480 1 14879189597518333749
14028597 1 17604136031478445698
140371 6 18261127244446004678
14068700 675 18334579027875500502
14681490 219 18335699395121264559
14790565 3 17185315340012882309
14866123 147 17690281508456475467
15131766 46 15695993086954597634
15183329 4 18333448733653611643
15351339 4 18042391444798348523
15420108 30 17331660853678172480
15890870 6 18120370948904226045
15927050 60 17544200376895856258
16087824 20 18265899056455209557
16988056 13 18264762345598426189
17492 89 18121500426033438295
17980427 23 17631749230585070643
18681886 176 18341045323724632130
20642791 13 18263930934772583254
20775438 99 17619888987883660639
21049683 271 18264214780212214060
21133410 127 17536581165554388389
21641784 216 18116454591100371900
221357 26 18334852827572105903
23559900 14 18192708067523079371
23929065 36 18193539105134803464
249057 3 18412261745129739479
255183 313 17908443362955552537
283562 15 18263083223902352162
3004659 81 18040435499633485590
3383291 50 16177071887932625482
4015057 19 18263646332822720275
4046055 25 18334860480903056478
4408954 87 17268661728030368681
44317340 157 18122902303865144799
508180 173 18260545641538891889
57124632 79 17765993187760761473
6004065 56 18267298910149414122
653340 110 18194678173248052850
9962374 69 18124591136181996983
9981440 41 17185871139235821785

> <PUBCHEM_SHAPE_MULTIPOLES>
614.56
12.45
7.12
1.18
1.26
10.26
-0.28
-17.51
2.81
1.85
-0.9
0.21
1.56
0.74

> <PUBCHEM_SHAPE_SELFOVERLAP>
1370.451

> <PUBCHEM_SHAPE_VOLUME>
323.8

> <PUBCHEM_COORDINATE_TYPE>
2
5
10

$$$$
