6508
  -OEChem-09212409523D

 25 25  0     1  0  0  0  0  0999 V2000
   -1.0059    0.6980    1.4748 O   0  0  0  0  0  0  0  0  0  0  0  0
    1.9533   -2.2704    0.3647 O   0  0  0  0  0  0  0  0  0  0  0  0
    1.3534    2.0435    0.5511 O   0  0  0  0  0  0  0  0  0  0  0  0
    3.2527    0.1947   -0.2700 O   0  0  0  0  0  0  0  0  0  0  0  0
   -2.5129   -0.7764   -1.3689 O   0  0  0  0  0  0  0  0  0  0  0  0
   -3.3733    0.1223    0.5410 O   0  0  0  0  0  0  0  0  0  0  0  0
   -0.9794    0.0864    0.1909 C   0  0  0  0  0  0  0  0  0  0  0  0
   -0.1946   -1.2259    0.2469 C   0  0  0  0  0  0  0  0  0  0  0  0
   -0.3827    1.0662   -0.8299 C   0  0  0  0  0  0  0  0  0  0  0  0
    1.3029   -1.0039    0.4706 C   0  0  2  0  0  0  0  0  0  0  0  0
    1.1226    1.2830   -0.6353 C   0  0  2  0  0  0  0  0  0  0  0  0
    1.8803   -0.0475   -0.5754 C   0  0  0  0  0  0  0  0  0  0  0  0
   -2.4164   -0.1699   -0.1605 C   0  0  0  0  0  0  0  0  0  0  0  0
   -0.3299   -1.8066   -0.6755 H   0  0  0  0  0  0  0  0  0  0  0  0
   -0.5791   -1.8677    1.0511 H   0  0  0  0  0  0  0  0  0  0  0  0
   -0.8921    2.0349   -0.7413 H   0  0  0  0  0  0  0  0  0  0  0  0
   -0.5449    0.7031   -1.8524 H   0  0  0  0  0  0  0  0  0  0  0  0
    1.4993   -0.6299    1.4820 H   0  0  0  0  0  0  0  0  0  0  0  0
    1.5159    1.8898   -1.4585 H   0  0  0  0  0  0  0  0  0  0  0  0
    1.8555   -0.5341   -1.5586 H   0  0  0  0  0  0  0  0  0  0  0  0
   -1.3045    0.0363    2.1219 H   0  0  0  0  0  0  0  0  0  0  0  0
    1.5789   -2.8506    1.0495 H   0  0  0  0  0  0  0  0  0  0  0  0
    0.9636    1.5668    1.3025 H   0  0  0  0  0  0  0  0  0  0  0  0
    3.6015    0.7969   -0.9491 H   0  0  0  0  0  0  0  0  0  0  0  0
   -3.4453   -0.9538   -1.6165 H   0  0  0  0  0  0  0  0  0  0  0  0
  1  7  1  0  0  0  0
  1 21  1  0  0  0  0
  2 10  1  0  0  0  0
  2 22  1  0  0  0  0
  3 11  1  0  0  0  0
  3 23  1  0  0  0  0
  4 12  1  0  0  0  0
  4 24  1  0  0  0  0
  5 13  1  0  0  0  0
  5 25  1  0  0  0  0
  6 13  2  0  0  0  0
  7  8  1  0  0  0  0
  7  9  1  0  0  0  0
  7 13  1  0  0  0  0
  8 10  1  0  0  0  0
  8 14  1  0  0  0  0
  8 15  1  0  0  0  0
  9 11  1  0  0  0  0
  9 16  1  0  0  0  0
  9 17  1  0  0  0  0
 10 12  1  0  0  0  0
 10 18  1  0  0  0  0
 11 12  1  0  0  0  0
 11 19  1  0  0  0  0
 12 20  1  0  0  0  0
M  END
> <PUBCHEM_COMPOUND_CID>
6508

> <PUBCHEM_CONFORMER_RMSD>
0.6

> <PUBCHEM_CONFORMER_DIVERSEORDER>
1
4
8
7
6
3
2
5

> <PUBCHEM_MMFF94_PARTIAL_CHARGES>
16
1 -0.68
10 0.28
11 0.28
12 0.28
13 0.66
2 -0.68
21 0.4
22 0.4
23 0.4
24 0.4
25 0.5
3 -0.68
4 -0.68
5 -0.65
6 -0.57
7 0.34

> <PUBCHEM_EFFECTIVE_ROTOR_COUNT>
2.2

> <PUBCHEM_PHARMACOPHORE_FEATURES>
12
1 1 acceptor
1 1 donor
1 2 acceptor
1 2 donor
1 3 acceptor
1 3 donor
1 4 acceptor
1 4 donor
1 5 acceptor
1 6 acceptor
3 5 6 13 anion
6 7 8 9 10 11 12 rings

> <PUBCHEM_HEAVY_ATOM_COUNT>
13

> <PUBCHEM_ATOM_DEF_STEREO_COUNT>
2

> <PUBCHEM_ATOM_UDEF_STEREO_COUNT>
0

> <PUBCHEM_BOND_DEF_STEREO_COUNT>
0

> <PUBCHEM_BOND_UDEF_STEREO_COUNT>
0

> <PUBCHEM_ISOTOPIC_ATOM_COUNT>
0

> <PUBCHEM_COMPONENT_COUNT>
1

> <PUBCHEM_CACTVS_TAUTO_COUNT>
1

> <PUBCHEM_CONFORMER_ID>
0000196C00000001

> <PUBCHEM_MMFF94_ENERGY>
27.9952

> <PUBCHEM_FEATURE_SELFOVERLAP>
60.985

> <PUBCHEM_SHAPE_FINGERPRINT>
12423570 1 17620762682413741962
12897270 3 18261386784475816255
12932764 1 18342174475279601773
14128692 85 18201150044258958047
14817 1 9101310776053140960
15775835 57 18410300228236324357
16945 1 18336819870441675151
20201158 50 17894633642796479402
21040471 1 17901956566526338076
23235685 24 17895196652916385740
23419403 2 15369435792004227578
23552423 10 18341327911381708405
241688 4 17973160621766143136
2748010 2 18045210549303239574
29004967 10 18040159508733321761
5084963 1 18263369246758571876
528886 8 18260265265504122137
53812653 166 18336267941680362048
63268167 104 18408606928795177363

> <PUBCHEM_SHAPE_MULTIPOLES>
232.32
3.98
1.71
1.03
1.2
0.22
0.02
0.41
-0.29
-1.13
0.15
0.41
-0.13
-0.24

> <PUBCHEM_SHAPE_SELFOVERLAP>
475.101

> <PUBCHEM_SHAPE_VOLUME>
132.6

> <PUBCHEM_COORDINATE_TYPE>
2
5
10

$$$$
